performance/linearized_pglib_scopf_baseline/pglib_opf_case30_ieee.json
{"elements": {"bus": {"1": {"matpower_bustype": "ref", "area": 1.0, "vm": 1.0, "va": -0.0, "base_kv": 132.0, "zone": 1.0, "v_min": 0.94, "v_max": 1.06, "lmp": 18.421528, "pl": 0.0}, "2": {"matpower_bustype": "PV", "area": 1.0, "vm": 1.0, "va": 3.8781497724077063, "base_kv": 132.0, "zone": 1.0, "v_min": 0.94, "v_max": 1.06, "lmp": 2018.4215280000033, "pl": 21.7}, "3": {"matpower_bustype": "PQ", "area": 1.0, "vm": 1.0, "va": 6.974420041089341, "base_kv": 132.0, "zone": 1.0, "v_min": 0.94, "v_max": 1.06, "lmp": 1018.4215280000025, "pl": 2.4}, "4": {"matpower_bustype": "PQ", "area": 1.0, "vm": 1.0, "va": 8.522367477751784, "base_kv": 132.0, "zone": 1.0, "v_min": 0.94, "v_max": 1.06, "lmp": 2018.4215280000049, "pl": 7.6}, "5": {"matpower_bustype": "PV", "area": 1.0, "vm": 1.0, "va": 12.894797408080642, "base_kv": 132.0, "zone": 1.0, "v_min": 0.94, "v_max": 1.06, "lmp": 2018.4215280000042, "pl": 94.2}, "6": {"matpower_bustype": "PQ", "area": 1.0, "vm": 1.0, "va": 10.140022619047643, "base_kv": 132.0, "zone": 1.0, "v_min": 0.94, "v_max": 1.06, "lmp": 2018.421528000005, "pl": 0.0}, "7": {"matpower_bustype": "PQ", "area": 1.0, "vm": 1.0, "va": 11.908461772475878, "base_kv": 132.0, "zone": 1.0, "v_min": 0.94, "v_max": 1.06, "lmp": 2018.4215280000049, "pl": 22.8}, "8": {"matpower_bustype": "PV", "area": 1.0, "vm": 1.0, "va": 10.852623324202787, "base_kv": 132.0, "zone": 1.0, "v_min": 0.94, "v_max": 1.06, "lmp": 2018.421528000005, "pl": 30.0}, "9": {"matpower_bustype": "PQ", "area": 1.0, "vm": 1.0, "va": 13.342851542195133, "base_kv": 1.0, "zone": 1.0, "v_min": 0.94, "v_max": 1.06, "lmp": 2018.4215280000074, "pl": 0.0}, "10": {"matpower_bustype": "PQ", "area": 1.0, "vm": 1.0, "va": 15.074757224642749, "base_kv": 33.0, "zone": 1.0, "v_min": 0.94, "v_max": 1.06, "lmp": 2018.421528000009, "pl": 5.8}, "11": {"matpower_bustype": "PV", "area": 1.0, "vm": 1.0, "va": 13.342851542195133, "base_kv": 11.0, "zone": 1.0, "v_min": 0.94, "v_max": 1.06, "lmp": 2018.4215280000074, "pl": 0.0}, "12": {"matpower_bustype": "PQ", "area": 1.0, "vm": 1.0, "va": 14.284762724308834, "base_kv": 33.0, "zone": 1.0, "v_min": 0.94, "v_max": 1.06, "lmp": 2018.4215280000074, "pl": 11.2}, "13": {"matpower_bustype": "PV", "area": 1.0, "vm": 1.0, "va": 14.284762724308834, "base_kv": 11.0, "zone": 1.0, "v_min": 0.94, "v_max": 1.06, "lmp": 2018.4215280000074, "pl": 0.0}, "14": {"matpower_bustype": "PQ", "area": 1.0, "vm": 1.0, "va": 15.391168242364024, "base_kv": 33.0, "zone": 1.0, "v_min": 0.94, "v_max": 1.06, "lmp": 2018.4215280000076, "pl": 6.2}, "15": {"matpower_bustype": "PQ", "area": 1.0, "vm": 1.0, "va": 15.545186293358434, "base_kv": 33.0, "zone": 1.0, "v_min": 0.94, "v_max": 1.06, "lmp": 2018.421528000008, "pl": 8.2}, "16": {"matpower_bustype": "PQ", "area": 1.0, "vm": 1.0, "va": 15.028920515161918, "base_kv": 33.0, "zone": 1.0, "v_min": 0.94, "v_max": 1.06, "lmp": 2018.421528000009, "pl": 3.5000000000000004}, "17": {"matpower_bustype": "PQ", "area": 1.0, "vm": 1.0, "va": 15.36348021519062, "base_kv": 33.0, "zone": 1.0, "v_min": 0.94, "v_max": 1.06, "lmp": 2018.421528000009, "pl": 9.0}, "18": {"matpower_bustype": "PQ", "area": 1.0, "vm": 1.0, "va": 16.260639595742337, "base_kv": 33.0, "zone": 1.0, "v_min": 0.94, "v_max": 1.06, "lmp": 2018.4215280000083, "pl": 3.2}, "19": {"matpower_bustype": "PQ", "area": 1.0, "vm": 1.0, "va": 16.44680657328958, "base_kv": 33.0, "zone": 1.0, "v_min": 0.94, "v_max": 1.06, "lmp": 2018.4215280000085, "pl": 9.5}, "20": {"matpower_bustype": "PQ", "area": 1.0, "vm": 1.0, "va": 16.17465845739678, "base_kv": 33.0, "zone": 1.0, "v_min": 0.94, "v_max": 1.06, "lmp": 2018.4215280000085, "pl": 2.2}, "21": {"matpower_bustype": "PQ", "area": 1.0, "vm": 1.0, "va": 15.729237657035045, "base_kv": 33.0, "zone": 1.0, "v_min": 0.94, "v_max": 1.06, "lmp": 2018.4215280000112, "pl": 17.5}, "22": {"matpower_bustype": "PQ", "area": 1.0, "vm": 1.0, "va": 15.698824221216881, "base_kv": 33.0, "zone": 1.0, "v_min": 0.94, "v_max": 1.06, "lmp": 2018.4215280000108, "pl": 0.0}, "23": {"matpower_bustype": "PQ", "area": 1.0, "vm": 1.0, "va": 16.043001617624135, "base_kv": 33.0, "zone": 1.0, "v_min": 0.94, "v_max": 1.06, "lmp": 2018.421528000009, "pl": 3.2}, "24": {"matpower_bustype": "PQ", "area": 1.0, "vm": 1.0, "va": 16.213362803184268, "base_kv": 33.0, "zone": 1.0, "v_min": 0.94, "v_max": 1.06, "lmp": 2018.4215280000103, "pl": 8.7}, "25": {"matpower_bustype": "PQ", "area": 1.0, "vm": 1.0, "va": 15.726394280595501, "base_kv": 33.0, "zone": 1.0, "v_min": 0.94, "v_max": 1.06, "lmp": 2018.421528000008, "pl": 0.0}, "26": {"matpower_bustype": "PQ", "area": 1.0, "vm": 1.0, "va": 16.488428148119496, "base_kv": 33.0, "zone": 1.0, "v_min": 0.94, "v_max": 1.06, "lmp": 2018.4215280000076, "pl": 3.5000000000000004}, "27": {"matpower_bustype": "PQ", "area": 1.0, "vm": 1.0, "va": 14.999158150198467, "base_kv": 33.0, "zone": 1.0, "v_min": 0.94, "v_max": 1.06, "lmp": 2018.4215280000074, "pl": 0.0}, "28": {"matpower_bustype": "PQ", "area": 1.0, "vm": 1.0, "va": 10.808213244632812, "base_kv": 132.0, "zone": 1.0, "v_min": 0.94, "v_max": 1.06, "lmp": 2018.421528000005, "pl": 0.0}, "29": {"matpower_bustype": "PQ", "area": 1.0, "vm": 1.0, "va": 16.442254057341437, "base_kv": 33.0, "zone": 1.0, "v_min": 0.94, "v_max": 1.06, "lmp": 2018.4215280000074, "pl": 2.4}, "30": {"matpower_bustype": "PQ", "area": 1.0, "vm": 1.0, "va": 17.39406116925064, "base_kv": 33.0, "zone": 1.0, "v_min": 0.94, "v_max": 1.06, "lmp": 2018.4215280000074, "pl": 10.6}}, "load": {"load_2": {"in_service": true, "p_load": 21.7, "q_load": 12.7, "bus": "2"}, "load_3": {"in_service": true, "p_load": 2.4, "q_load": 1.2, "bus": "3"}, "load_4": {"in_service": true, "p_load": 7.6, "q_load": 1.6, "bus": "4"}, "load_5": {"in_service": true, "p_load": 94.2, "q_load": 19.0, "bus": "5"}, "load_7": {"in_service": true, "p_load": 22.8, "q_load": 10.9, "bus": "7"}, "load_8": {"in_service": true, "p_load": 30.0, "q_load": 30.0, "bus": "8"}, "load_10": {"in_service": true, "p_load": 5.8, "q_load": 2.0, "bus": "10"}, "load_12": {"in_service": true, "p_load": 11.2, "q_load": 7.5, "bus": "12"}, "load_14": {"in_service": true, "p_load": 6.2, "q_load": 1.6, "bus": "14"}, "load_15": {"in_service": true, "p_load": 8.2, "q_load": 2.5, "bus": "15"}, "load_16": {"in_service": true, "p_load": 3.5000000000000004, "q_load": 1.8000000000000003, "bus": "16"}, "load_17": {"in_service": true, "p_load": 9.0, "q_load": 5.8, "bus": "17"}, "load_18": {"in_service": true, "p_load": 3.2, "q_load": 0.9000000000000001, "bus": "18"}, "load_19": {"in_service": true, "p_load": 9.5, "q_load": 3.4000000000000004, "bus": "19"}, "load_20": {"in_service": true, "p_load": 2.2, "q_load": 0.7, "bus": "20"}, "load_21": {"in_service": true, "p_load": 17.5, "q_load": 11.2, "bus": "21"}, "load_23": {"in_service": true, "p_load": 3.2, "q_load": 1.6, "bus": "23"}, "load_24": {"in_service": true, "p_load": 8.7, "q_load": 6.7, "bus": "24"}, "load_26": {"in_service": true, "p_load": 3.5000000000000004, "q_load": 2.3, "bus": "26"}, "load_29": {"in_service": true, "p_load": 2.4, "q_load": 0.9000000000000001, "bus": "29"}, "load_30": {"in_service": true, "p_load": 10.6, "q_load": 1.9, "bus": "30"}}, "shunt": {"shunt_10": {"shunt_type": "fixed", "bs": 19.0, "gs": 0.0, "bus": "10"}, "shunt_24": {"shunt_type": "fixed", "bs": 4.3, "gs": 0.0, "bus": "24"}}, "generator": {"1": {"bus": "1", "pg": 191.4, "qg": 5.0, "vg": 1.0, "mbase": 100.0, "in_service": true, "p_min": 0.0, "p_max": 271.0, "q_min": 0.0, "q_max": 10.0, "generator_type": "thermal", "p_cost": {"data_type": "cost_curve", "cost_curve_type": "piecewise", "values": [[0.0, 0.0], [90.33333333333333, 1664.078029333333], [180.66666666666666, 3328.156058666666], [271.0, 4992.234087999999]]}, "startup_cost": 0.0, "shutdown_cost": 0.0}, "2": {"bus": "2", "pg": 92.0, "qg": 3.0, "vg": 1.0, "mbase": 100.0, "in_service": true, "p_min": 0.0, "p_max": 92.0, "q_min": -40.0, "q_max": 46.0, "generator_type": "thermal", "p_cost": {"data_type": "cost_curve", "cost_curve_type": "piecewise", "values": [[0.0, 0.0], [30.66666666666667, 1600.2557893333335], [61.33333333333334, 3200.511578666667], [92.0, 4800.767368]]}, "startup_cost": 0.0, "shutdown_cost": 0.0}, "3": {"bus": "5", "pg": 0.0, "qg": 0.0, "vg": 1.0, "mbase": 100.0, "in_service": true, "p_min": 0.0, "p_max": 0.0, "q_min": -40.0, "q_max": 40.0, "generator_type": "thermal", "p_cost": {"data_type": "cost_curve", "cost_curve_type": "piecewise", "values": [[0.0, 0.0]]}, "startup_cost": 0.0, "shutdown_cost": 0.0}, "4": {"bus": "8", "pg": 0.0, "qg": 15.0, "vg": 1.0, "mbase": 100.0, "in_service": true, "p_min": 0.0, "p_max": 0.0, "q_min": -10.0, "q_max": 40.0, "generator_type": "thermal", "p_cost": {"data_type": "cost_curve", "cost_curve_type": "piecewise", "values": [[0.0, 0.0]]}, "startup_cost": 0.0, "shutdown_cost": 0.0}, "5": {"bus": "11", "pg": 0.0, "qg": 9.0, "vg": 1.0, "mbase": 100.0, "in_service": true, "p_min": 0.0, "p_max": 0.0, "q_min": -6.0, "q_max": 24.0, "generator_type": "thermal", "p_cost": {"data_type": "cost_curve", "cost_curve_type": "piecewise", "values": [[0.0, 0.0]]}, "startup_cost": 0.0, "shutdown_cost": 0.0}, "6": {"bus": "13", "pg": 0.0, "qg": 9.0, "vg": 1.0, "mbase": 100.0, "in_service": true, "p_min": 0.0, "p_max": 0.0, "q_min": -6.0, "q_max": 24.0, "generator_type": "thermal", "p_cost": {"data_type": "cost_curve", "cost_curve_type": "piecewise", "values": [[0.0, 0.0]]}, "startup_cost": 0.0, "shutdown_cost": 0.0}}, "branch": {"1": {"from_bus": "1", "to_bus": "2", "resistance": 0.0192, "reactance": 0.0575, "charging_susceptance": 0.0528, "branch_type": "line", "rating_long_term": 138.0, "rating_short_term": 138.0, "rating_emergency": 138.0, "in_service": true, "angle_diff_min": -30.0, "angle_diff_max": 30.0, "pf": 117.71562158953601, "qf": null, "pt": null, "qt": null}, "2": {"from_bus": "1", "to_bus": "3", "resistance": 0.0452, "reactance": 0.1652, "charging_susceptance": 0.0408, "branch_type": "line", "rating_long_term": 152.0, "rating_short_term": 152.0, "rating_emergency": 152.0, "in_service": true, "angle_diff_min": -30.0, "angle_diff_max": 30.0, "pf": 73.6843784104644, "qf": null, "pt": null, "qt": null}, "3": {"from_bus": "2", "to_bus": "4", "resistance": 0.057, "reactance": 0.1737, "charging_susceptance": 0.0368, "branch_type": "line", "rating_long_term": 139.0, "rating_short_term": 139.0, "rating_emergency": 139.0, "in_service": true, "angle_diff_min": -30.0, "angle_diff_max": 30.0, "pf": 46.664876302630965, "qf": null, "pt": null, "qt": null}, "4": {"from_bus": "3", "to_bus": "4", "resistance": 0.0132, "reactance": 0.0379, "charging_susceptance": 0.0084, "branch_type": "line", "rating_long_term": 135.0, "rating_short_term": 135.0, "rating_emergency": 135.0, "in_service": true, "angle_diff_min": -30.0, "angle_diff_max": 30.0, "pf": 71.28437841046437, "qf": null, "pt": null, "qt": null}, "5": {"from_bus": "2", "to_bus": "5", "resistance": 0.0472, "reactance": 0.1983, "charging_susceptance": 0.0418, "branch_type": "line", "rating_long_term": 144.0, "rating_short_term": 144.0, "rating_emergency": 144.0, "in_service": true, "angle_diff_min": -30.0, "angle_diff_max": 30.0, "pf": 79.35965140426366, "qf": null, "pt": null, "qt": null}, "6": {"from_bus": "2", "to_bus": "6", "resistance": 0.0581, "reactance": 0.1763, "charging_susceptance": 0.0374, "branch_type": "line", "rating_long_term": 139.0, "rating_short_term": 139.0, "rating_emergency": 139.0, "in_service": true, "angle_diff_min": -30.0, "angle_diff_max": 30.0, "pf": 61.99109388264142, "qf": null, "pt": null, "qt": null}, "7": {"from_bus": "4", "to_bus": "6", "resistance": 0.0119, "reactance": 0.0414, "charging_susceptance": 0.009, "branch_type": "line", "rating_long_term": 148.0, "rating_short_term": 148.0, "rating_emergency": 148.0, "in_service": true, "angle_diff_min": -30.0, "angle_diff_max": 30.0, "pf": 68.19663859281849, "qf": null, "pt": null, "qt": null}, "8": {"from_bus": "5", "to_bus": "7", "resistance": 0.046, "reactance": 0.116, "charging_susceptance": 0.0204, "branch_type": "line", "rating_long_term": 127.0, "rating_short_term": 127.0, "rating_emergency": 127.0, "in_service": true, "angle_diff_min": -30.0, "angle_diff_max": 30.0, "pf": -14.840348595736344, "qf": null, "pt": null, "qt": null}, "9": {"from_bus": "6", "to_bus": "7", "resistance": 0.0267, "reactance": 0.082, "charging_susceptance": 0.017, "branch_type": "line", "rating_long_term": 140.0, "rating_short_term": 140.0, "rating_emergency": 140.0, "in_service": true, "angle_diff_min": -30.0, "angle_diff_max": 30.0, "pf": 37.640348595736384, "qf": null, "pt": null, "qt": null}, "10": {"from_bus": "6", "to_bus": "8", "resistance": 0.012, "reactance": 0.042, "charging_susceptance": 0.009, "branch_type": "line", "rating_long_term": 148.0, "rating_short_term": 148.0, "rating_emergency": 148.0, "in_service": true, "angle_diff_min": -30.0, "angle_diff_max": 30.0, "pf": 29.61244894521562, "qf": null, "pt": null, "qt": null}, "11": {"from_bus": "6", "to_bus": "9", "resistance": 0.0, "reactance": 0.208, "charging_susceptance": 0.0, "transformer_tap_ratio": 0.978, "transformer_phase_shift": 0.0, "branch_type": "transformer", "rating_long_term": 142.0, "rating_short_term": 142.0, "rating_emergency": 142.0, "in_service": true, "angle_diff_min": -30.0, "angle_diff_max": 30.0, "pf": 27.479505902463863, "qf": null, "pt": null, "qt": null}, "12": {"from_bus": "6", "to_bus": "10", "resistance": 0.0, "reactance": 0.556, "charging_susceptance": 0.0, "transformer_tap_ratio": 0.969, "transformer_phase_shift": 0.0, "branch_type": "transformer", "rating_long_term": 53.0, "rating_short_term": 53.0, "rating_emergency": 53.0, "in_service": true, "angle_diff_min": -30.0, "angle_diff_max": 30.0, "pf": 15.986102742525185, "qf": null, "pt": null, "qt": null}, "13": {"from_bus": "9", "to_bus": "11", "resistance": 0.0, "reactance": 0.208, "charging_susceptance": 0.0, "transformer_tap_ratio": 1.0, "transformer_phase_shift": 0.0, "branch_type": "transformer", "rating_long_term": 142.0, "rating_short_term": 142.0, "rating_emergency": 142.0, "in_service": true, "angle_diff_min": -30.0, "angle_diff_max": 30.0, "pf": -5.306900717493201e-15, "qf": null, "pt": null, "qt": null}, "14": {"from_bus": "9", "to_bus": "10", "resistance": 0.0, "reactance": 0.11, "charging_susceptance": 0.0, "transformer_tap_ratio": 1.0, "transformer_phase_shift": 0.0, "branch_type": "transformer", "rating_long_term": 267.0, "rating_short_term": 267.0, "rating_emergency": 267.0, "in_service": true, "angle_diff_min": -30.0, "angle_diff_max": 30.0, "pf": 27.479505902463913, "qf": null, "pt": null, "qt": null}, "15": {"from_bus": "4", "to_bus": "12", "resistance": 0.0, "reactance": 0.256, "charging_susceptance": 0.0, "transformer_tap_ratio": 0.932, "transformer_phase_shift": 0.0, "branch_type": "transformer", "rating_long_term": 114.99999999999999, "rating_short_term": 114.99999999999999, "rating_emergency": 114.99999999999999, "in_service": true, "angle_diff_min": -30.0, "angle_diff_max": 30.0, "pf": 42.15261612027685, "qf": null, "pt": null, "qt": null}, "16": {"from_bus": "12", "to_bus": "13", "resistance": 0.0, "reactance": 0.14, "charging_susceptance": 0.0, "transformer_tap_ratio": 1.0, "transformer_phase_shift": 0.0, "branch_type": "transformer", "rating_long_term": 210.0, "rating_short_term": 210.0, "rating_emergency": 210.0, "in_service": true, "angle_diff_min": -30.0, "angle_diff_max": 30.0, "pf": 3.470786044121988e-17, "qf": null, "pt": null, "qt": null}, "17": {"from_bus": "12", "to_bus": "14", "resistance": 0.1231, "reactance": 0.2559, "charging_susceptance": 0.0, "branch_type": "line", "rating_long_term": 28.999999999999996, "rating_short_term": 28.999999999999996, "rating_emergency": 28.999999999999996, "in_service": true, "angle_diff_min": -30.0, "angle_diff_max": 30.0, "pf": 7.546080168931864, "qf": null, "pt": null, "qt": null}, "18": {"from_bus": "12", "to_bus": "15", "resistance": 0.0662, "reactance": 0.1304, "charging_susceptance": 0.0, "branch_type": "line", "rating_long_term": 28.999999999999996, "rating_short_term": 28.999999999999996, "rating_emergency": 28.999999999999996, "in_service": true, "angle_diff_min": -30.0, "angle_diff_max": 30.0, "pf": 16.87004697059327, "qf": null, "pt": null, "qt": null}, "19": {"from_bus": "12", "to_bus": "16", "resistance": 0.0945, "reactance": 0.1987, "charging_susceptance": 0.0, "branch_type": "line", "rating_long_term": 30.0, "rating_short_term": 30.0, "rating_emergency": 30.0, "in_service": true, "angle_diff_min": -30.0, "angle_diff_max": 30.0, "pf": 6.5364889807517255, "qf": null, "pt": null, "qt": null}, "20": {"from_bus": "14", "to_bus": "15", "resistance": 0.221, "reactance": 0.1997, "charging_susceptance": 0.0, "branch_type": "line", "rating_long_term": 20.0, "rating_short_term": 20.0, "rating_emergency": 20.0, "in_service": true, "angle_diff_min": -30.0, "angle_diff_max": 30.0, "pf": 1.3460801689318878, "qf": null, "pt": null, "qt": null}, "21": {"from_bus": "16", "to_bus": "17", "resistance": 0.0524, "reactance": 0.1923, "charging_susceptance": 0.0, "branch_type": "line", "rating_long_term": 38.0, "rating_short_term": 38.0, "rating_emergency": 38.0, "in_service": true, "angle_diff_min": -30.0, "angle_diff_max": 30.0, "pf": 3.0364889807516544, "qf": null, "pt": null, "qt": null}, "22": {"from_bus": "15", "to_bus": "18", "resistance": 0.1073, "reactance": 0.2185, "charging_susceptance": 0.0, "branch_type": "line", "rating_long_term": 28.999999999999996, "rating_short_term": 28.999999999999996, "rating_emergency": 28.999999999999996, "in_service": true, "angle_diff_min": -30.0, "angle_diff_max": 30.0, "pf": 5.714881359663931, "qf": null, "pt": null, "qt": null}, "23": {"from_bus": "18", "to_bus": "19", "resistance": 0.0639, "reactance": 0.1292, "charging_susceptance": 0.0, "branch_type": "line", "rating_long_term": 28.999999999999996, "rating_short_term": 28.999999999999996, "rating_emergency": 28.999999999999996, "in_service": true, "angle_diff_min": -30.0, "angle_diff_max": 30.0, "pf": 2.5148813596639434, "qf": null, "pt": null, "qt": null}, "24": {"from_bus": "19", "to_bus": "20", "resistance": 0.034, "reactance": 0.068, "charging_susceptance": 0.0, "branch_type": "line", "rating_long_term": 28.999999999999996, "rating_short_term": 28.999999999999996, "rating_emergency": 28.999999999999996, "in_service": true, "angle_diff_min": -30.0, "angle_diff_max": 30.0, "pf": -6.985118640335989, "qf": null, "pt": null, "qt": null}, "25": {"from_bus": "10", "to_bus": "20", "resistance": 0.0936, "reactance": 0.209, "charging_susceptance": 0.0, "branch_type": "line", "rating_long_term": 30.0, "rating_short_term": 30.0, "rating_emergency": 30.0, "in_service": true, "angle_diff_min": -30.0, "angle_diff_max": 30.0, "pf": 9.185118640336073, "qf": null, "pt": null, "qt": null}, "26": {"from_bus": "10", "to_bus": "17", "resistance": 0.0324, "reactance": 0.0845, "charging_susceptance": 0.0, "branch_type": "line", "rating_long_term": 33.0, "rating_short_term": 33.0, "rating_emergency": 33.0, "in_service": true, "angle_diff_min": -30.0, "angle_diff_max": 30.0, "pf": 5.963511019248298, "qf": null, "pt": null, "qt": null}, "27": {"from_bus": "10", "to_bus": "21", "resistance": 0.0348, "reactance": 0.0749, "charging_susceptance": 0.0, "branch_type": "line", "rating_long_term": 30.0, "rating_short_term": 30.0, "rating_emergency": 30.0, "in_service": true, "angle_diff_min": -30.0, "angle_diff_max": 30.0, "pf": 15.250785627665842, "qf": null, "pt": null, "qt": null}, "28": {"from_bus": "10", "to_bus": "22", "resistance": 0.0727, "reactance": 0.1499, "charging_susceptance": 0.0, "branch_type": "line", "rating_long_term": 28.999999999999996, "rating_short_term": 28.999999999999996, "rating_emergency": 28.999999999999996, "in_service": true, "angle_diff_min": -30.0, "angle_diff_max": 30.0, "pf": 7.266193357739019, "qf": null, "pt": null, "qt": null}, "29": {"from_bus": "21", "to_bus": "22", "resistance": 0.0116, "reactance": 0.0236, "charging_susceptance": 0.0, "branch_type": "line", "rating_long_term": 28.999999999999996, "rating_short_term": 28.999999999999996, "rating_emergency": 28.999999999999996, "in_service": true, "angle_diff_min": -30.0, "angle_diff_max": 30.0, "pf": -2.249214372334422, "qf": null, "pt": null, "qt": null}, "30": {"from_bus": "15", "to_bus": "23", "resistance": 0.1, "reactance": 0.202, "charging_susceptance": 0.0, "branch_type": "line", "rating_long_term": 28.999999999999996, "rating_short_term": 28.999999999999996, "rating_emergency": 28.999999999999996, "in_service": true, "angle_diff_min": -30.0, "angle_diff_max": 30.0, "pf": 4.301245779861236, "qf": null, "pt": null, "qt": null}, "31": {"from_bus": "22", "to_bus": "24", "resistance": 0.115, "reactance": 0.179, "charging_susceptance": 0.0, "branch_type": "line", "rating_long_term": 26.0, "rating_short_term": 26.0, "rating_emergency": 26.0, "in_service": true, "angle_diff_min": -30.0, "angle_diff_max": 30.0, "pf": 5.016978985404251, "qf": null, "pt": null, "qt": null}, "32": {"from_bus": "23", "to_bus": "24", "resistance": 0.132, "reactance": 0.27, "charging_susceptance": 0.0, "branch_type": "line", "rating_long_term": 28.999999999999996, "rating_short_term": 28.999999999999996, "rating_emergency": 28.999999999999996, "in_service": true, "angle_diff_min": -30.0, "angle_diff_max": 30.0, "pf": 1.1012457798612318, "qf": null, "pt": null, "qt": null}, "33": {"from_bus": "24", "to_bus": "25", "resistance": 0.1885, "reactance": 0.3292, "charging_susceptance": 0.0, "branch_type": "line", "rating_long_term": 27.0, "rating_short_term": 27.0, "rating_emergency": 27.0, "in_service": true, "angle_diff_min": -30.0, "angle_diff_max": 30.0, "pf": -2.581775234734614, "qf": null, "pt": null, "qt": null}, "34": {"from_bus": "25", "to_bus": "26", "resistance": 0.2544, "reactance": 0.38, "charging_susceptance": 0.0, "branch_type": "line", "rating_long_term": 25.0, "rating_short_term": 25.0, "rating_emergency": 25.0, "in_service": true, "angle_diff_min": -30.0, "angle_diff_max": 30.0, "pf": 3.499999999999996, "qf": null, "pt": null, "qt": null}, "35": {"from_bus": "25", "to_bus": "27", "resistance": 0.1093, "reactance": 0.2087, "charging_susceptance": 0.0, "branch_type": "line", "rating_long_term": 28.000000000000004, "rating_short_term": 28.000000000000004, "rating_emergency": 28.000000000000004, "in_service": true, "angle_diff_min": -30.0, "angle_diff_max": 30.0, "pf": -6.081775234734578, "qf": null, "pt": null, "qt": null}, "36": {"from_bus": "28", "to_bus": "27", "resistance": 0.0, "reactance": 0.396, "charging_susceptance": 0.0, "transformer_tap_ratio": 0.968, "transformer_phase_shift": 0.0, "branch_type": "transformer", "rating_long_term": 75.0, "rating_short_term": 75.0, "rating_emergency": 75.0, "in_service": true, "angle_diff_min": -30.0, "angle_diff_max": 30.0, "pf": 19.081775234734614, "qf": null, "pt": null, "qt": null}, "37": {"from_bus": "27", "to_bus": "29", "resistance": 0.2198, "reactance": 0.4153, "charging_susceptance": 0.0, "branch_type": "line", "rating_long_term": 28.000000000000004, "rating_short_term": 28.000000000000004, "rating_emergency": 28.000000000000004, "in_service": true, "angle_diff_min": -30.0, "angle_diff_max": 30.0, "pf": 6.064718276354251, "qf": null, "pt": null, "qt": null}, "38": {"from_bus": "27", "to_bus": "30", "resistance": 0.3202, "reactance": 0.6027, "charging_susceptance": 0.0, "branch_type": "line", "rating_long_term": 28.000000000000004, "rating_short_term": 28.000000000000004, "rating_emergency": 28.000000000000004, "in_service": true, "angle_diff_min": -30.0, "angle_diff_max": 30.0, "pf": 6.935281723645753, "qf": null, "pt": null, "qt": null}, "39": {"from_bus": "29", "to_bus": "30", "resistance": 0.2399, "reactance": 0.4533, "charging_susceptance": 0.0, "branch_type": "line", "rating_long_term": 28.000000000000004, "rating_short_term": 28.000000000000004, "rating_emergency": 28.000000000000004, "in_service": true, "angle_diff_min": -30.0, "angle_diff_max": 30.0, "pf": 3.664718276354242, "qf": null, "pt": null, "qt": null}, "40": {"from_bus": "8", "to_bus": "28", "resistance": 0.0636, "reactance": 0.2, "charging_susceptance": 0.0428, "branch_type": "line", "rating_long_term": 140.0, "rating_short_term": 140.0, "rating_emergency": 140.0, "in_service": true, "angle_diff_min": -30.0, "angle_diff_max": 30.0, "pf": -0.3875510547843519, "qf": null, "pt": null, "qt": null}, "41": {"from_bus": "6", "to_bus": "28", "resistance": 0.0169, "reactance": 0.0599, "charging_susceptance": 0.013, "branch_type": "line", "rating_long_term": 149.0, "rating_short_term": 149.0, "rating_emergency": 149.0, "in_service": true, "angle_diff_min": -30.0, "angle_diff_max": 30.0, "pf": 19.46932628951893, "qf": null, "pt": null, "qt": null}}, "contingency": {"1": {"branch_contingency": "1", "monitored_branches": {"2": {"pf": 191.4000000000006}, "4": {"pf": 189.0000000000007}}}, "2": {"branch_contingency": "2", "monitored_branches": {"1": {"pf": 191.40000000000057}}}, "3": {"branch_contingency": "3"}, "4": {"branch_contingency": "4", "monitored_branches": {"1": {"pf": 189.00000000000074}}}, "5": {"branch_contingency": "5"}, "6": {"branch_contingency": "6"}, "7": {"branch_contingency": "7", "monitored_branches": {"1": {"pf": 137.65421132609603}}}, "8": {"branch_contingency": "8"}, "9": {"branch_contingency": "9"}, "10": {"branch_contingency": "10"}, "11": {"branch_contingency": "11"}, "12": {"branch_contingency": "12"}, "14": {"branch_contingency": "14"}, "15": {"branch_contingency": "15"}, "17": {"branch_contingency": "17"}, "18": {"branch_contingency": "18"}, "19": {"branch_contingency": "19"}, "20": {"branch_contingency": "20"}, "21": {"branch_contingency": "21"}, "22": {"branch_contingency": "22"}, "23": {"branch_contingency": "23"}, "24": {"branch_contingency": "24"}, "25": {"branch_contingency": "25"}, "26": {"branch_contingency": "26"}, "27": {"branch_contingency": "27"}, "28": {"branch_contingency": "28"}, "29": {"branch_contingency": "29"}, "30": {"branch_contingency": "30"}, "31": {"branch_contingency": "31"}, "32": {"branch_contingency": "32"}, "33": {"branch_contingency": "33"}, "35": {"branch_contingency": "35"}, "36": {"branch_contingency": "36"}, "37": {"branch_contingency": "37"}, "38": {"branch_contingency": "38"}, "39": {"branch_contingency": "39"}, "40": {"branch_contingency": "40"}, "41": {"branch_contingency": "41"}}}, "system": {"model_name": "pglib_opf_case30_ieee", "mpc_version": "'2'", "baseMVA": 100.0, "reference_bus": "1", "reference_bus_angle": 0.0, "load_mismatch_cost": 1000000.0, "total_cost": 107226.64782720132, "p_balance_violation": 0.0}}